
**** 03/14/25 16:00:26 **** PSpice 23.1.0 (30 January 2024) *** ID# 0 ********

 ** Profile: "TPS543B22-STARTUP-transient"  [ C:\Users\madis\Documents\Repositories\DeepSpace00\Awohali\hardware\electronics\mainBoar


 ****     CIRCUIT DESCRIPTION


******************************************************************************




** Creating circuit file "transient.cir" 
** WARNING: THIS AUTOMATICALLY GENERATED FILE MAY BE OVERWRITTEN BY SUBSEQUENT SIMULATIONS

*Libraries: 
* Profile Libraries :
* Local Libraries :
.LIB "../../../we-xhmi.lib" 
.LIB "../../../tps543b22_trans.lib" 
* From [PSPICE NETLIST] section of C:\cds_spb_home\cdssetup\OrCAD_PSpiceTIPSpice_Install\23.1.0\PSpice.ini file:
.lib "nom_pspti.lib" 
.lib "nom.lib" 

*Analysis directives: 
.TRAN  0 2m 0 50n SKIPBP 
.OPTIONS FILEMODELSEARCH
.OPTIONS ABSTOL= 10p
.OPTIONS GMIN= 1n
.OPTIONS ITL2= 50
.OPTIONS ITL4= 20
.OPTIONS METHOD= Gear
.OPTIONS TRTOL= 1000
.PROBE64 V(alias(*)) I(alias(*)) 
.INC "..\TPS543B22-STARTUP.net" 



**** INCLUDING TPS543B22-STARTUP.net ****
* source TPS543B22_TRANS
C_C4         VIN 0  1u  TC=0,0 
C_C3         VIN 0  1u  TC=0,0 
C_C2         VIN 0  4.7u  TC=0,0 
C_C1         VIN 0  4.7u  TC=0,0 
R_R5         FSEL 0  24.3k TC=0,0 
R_R6         MSEL 0  49.9k TC=0,0 
V_V1         VIN 0  
+PULSE 0 6.6 10u 10u 10u 10m 1
R_R7         VOUT FB  56k TC=0,0 
R_R8         FB 0  10k TC=0,0 
C_C8         VOUT FB  24p  TC=0,0 
C_C7         N16771999 SW  0.1u  TC=0,0 
X_C5    VOUT 0 TPS543B22-STARTUP_C5 
C_C12         VIN 0  4.7u  TC=0,0 
C_C13         VIN 0  4.7u  TC=0,0 
C_C9         VDRV 0  2.2u IC=0 TC=0,0 
R_R2         VCC PG  10k TC=0,0 
R_R11         VDRV VCC  10 TC=0,0 
C_C14         VCC 0  0.1u IC=0 TC=0,0 
X_C16    VOUT 0 TPS543B22-STARTUP_C16 
X_C15    VOUT 0 TPS543B22-STARTUP_C15 
R_R16         VOUT 0  {3.3/0.5} TC=0,0 
X_U1          FSEL VCC 0 FB VIN EN PG MSEL VDRV SW N16771999 0 0 0 0 0 VIN
+  TPS543B22RYS_TRANS
L_L1         SW N16859786  7.08u  
R_R18         N16859786 VOUT  7.16m TC=0,0 
R_R19         SW N16859786  5.791k TC=0,0 
C_C17         SW N16859786 C_C17 14.891p  
.model        C_C17 CAP C=1  TC1=0 TC2=0 VC1=0 VC2=0    

.subckt TPS543B22-STARTUP_C5 1 2  
C_C5         1 _SR C_C5 100u IC=0 
.model         C_C5 CAP C=1      
RESR_C5         _SR 2 2m   
.ends TPS543B22-STARTUP_C5

.subckt TPS543B22-STARTUP_C16 1 2  
C_C16         1 _SR C_C16 100u IC=0 
.model         C_C16 CAP C=1      
RESR_C16         _SR 2 2m   
.ends TPS543B22-STARTUP_C16

.subckt TPS543B22-STARTUP_C15 1 2  
C_C15         1 _SR C_C15 100u IC=0 
.model         C_C15 CAP C=1      
RESR_C15         _SR 2 2m   
.ends TPS543B22-STARTUP_C15

**** RESUMING transient.cir ****
.END

**** 03/14/25 16:00:26 **** PSpice 23.1.0 (30 January 2024) *** ID# 0 ********

 ** Profile: "TPS543B22-STARTUP-transient"  [ C:\Users\madis\Documents\Repositories\DeepSpace00\Awohali\hardware\electronics\mainBoar


 ****     Capacitor MODEL PARAMETERS


******************************************************************************




               C_C17           X_C5.C_C5       X_C16.C_C16     X_C15.C_C15     
           C    1               1               1               1            



          JOB CONCLUDED

**** 03/14/25 16:00:26 **** PSpice 23.1.0 (30 January 2024) *** ID# 0 ********

 ** Profile: "TPS543B22-STARTUP-transient"  [ C:\Users\madis\Documents\Repositories\DeepSpace00\Awohali\hardware\electronics\mainBoar


 ****     JOB STATISTICS SUMMARY


******************************************************************************



  Total job time (using Solver 1)   =      401.44
